openfast_python/openfast/CaseGen_General.py,sha256=s_tgy2AyMQU40BwFRZsMMG9dIpLdi3nH2_JyZqr3Wpg,5760
openfast_python/openfast/FAST_post.py,sha256=CufrI4KpOJBEH1NYml6r2xgtDKk6UxX7W2bAaYl5EMk,492
openfast_python/openfast/FAST_reader.py,sha256=EpmpcndVg1d2-KPoNN8f7W3xymb0JO4ArEQ4M7iBAdQ,153233
openfast_python/openfast/FAST_vars_out.py,sha256=W4P59-MMhvEG34-I2C0zGs4radQO5xvA7T-CgsKVX0w,1222747
openfast_python/openfast/FAST_wrapper.py,sha256=b9BFTmpdcCTC1-b_NfS8PMTF8JBy8NnN2lTjq0QlnGQ,2083
openfast_python/openfast/FAST_writer.py,sha256=52FJAn14pLA12B0UWUUx73B9dvVry3cbS5uRbsBpw24,228345
openfast_python/openfast/FileTools.py,sha256=VvIzcHGWW7XgzH9ihTsyOfEcJKbUxvyepG3szWxOYL0,9682
openfast_python/openfast/IEC_CoeherentGusts.py,sha256=Z-YtiSDYHM5j07xD1DY3C9NtHi1vNQfABT61BngNYxo,9003
openfast_python/openfast/LinearFAST.py,sha256=xvVYhIHFZelq26XLyXUfVBfCZvlFHnPg_DLwdyAisMk,14420
openfast_python/openfast/StC_defaults.py,sha256=puIL1R1UQunyW_occouj7ejPb419js-4b48LbhM5yaU,7544
openfast_python/openfast/__init__.py,sha256=47DEQpj8HBSa-_TImW-5JCeuQeRkm5NMpJWZG3hSuFU,0
openfast_python/openfast/create_output_vars.py,sha256=MED0cq7rU0rQ70psPxjnQI-uqtkseZumIbex9JfaMTw,3557
openfast_python/openfast/openfast_library.py,sha256=iabpuor0UlUwpPJ-zu_6Elmhqg0xRDneL8839FcNGWU,10419
openfast_python/openfast/runFAST_pywrapper.py,sha256=LSWHXvRShcHfLRa0E8uEfpLycsYrmuqRLbn1ebkSRY8,20793
openfast_python/openfast/test/test_OF_utils.py,sha256=QGli1CZrrUNcteBdRDq0LAMRhuPVmVkEW6j3faV_WeM,5446
openfast_python/openfast/test/test_data/OpenFAST_models/BAR_00/Airfoils/OpenFAST_BAR_00_AF00_Coords.txt,sha256=3Y8IOpq5tFr_ger9HMZZP_yNx989kkimHYmPjHR5D1Q,9209
openfast_python/openfast/test/test_data/OpenFAST_models/BAR_00/Airfoils/OpenFAST_BAR_00_AF01_Coords.txt,sha256=4xVQKW5Nt9kWMEg_Eatt4uvE0-Gjj2UCZWQTs8ISfVU,9209
openfast_python/openfast/test/test_data/OpenFAST_models/BAR_00/Airfoils/OpenFAST_BAR_00_AF02_Coords.txt,sha256=p_Vqa_oeqkLtWjxK1w-1siFdlQ3BQuBvzG7ja36ZIP8,9209
openfast_python/openfast/test/test_data/OpenFAST_models/BAR_00/Airfoils/OpenFAST_BAR_00_AF03_Coords.txt,sha256=QZmXaaNs3FqR5lmE8zh5pqEM-yHhYpk7OAtKt6GBRbU,9209
openfast_python/openfast/test/test_data/OpenFAST_models/BAR_00/Airfoils/OpenFAST_BAR_00_AF04_Coords.txt,sha256=eRJhZSWwwjZPP6ZjAMFW9nY0Bm-2g9-OTiOQM7W2Gi0,9209
openfast_python/openfast/test/test_data/OpenFAST_models/BAR_00/Airfoils/OpenFAST_BAR_00_AF05_Coords.txt,sha256=-oSckaeI2cPrDzXIidLNp9TU3pnjH-3XDQfDjUqhp9Q,9209
openfast_python/openfast/test/test_data/OpenFAST_models/BAR_00/Airfoils/OpenFAST_BAR_00_AF06_Coords.txt,sha256=KW906NRPZen1XD-6aCPnGj_An6azxkm8g1Zo3CNXp6E,9209
openfast_python/openfast/test/test_data/OpenFAST_models/BAR_00/Airfoils/OpenFAST_BAR_00_AF07_Coords.txt,sha256=gC3-yiNbG3Z_I2drpBWXM1fV5d8avg6m_30D1EpdGeg,9209
openfast_python/openfast/test/test_data/OpenFAST_models/BAR_00/Airfoils/OpenFAST_BAR_00_AF08_Coords.txt,sha256=V_rht25XU-lFnzVcBELz-21VIeIql5LftTTxRAc1Evg,9209
openfast_python/openfast/test/test_data/OpenFAST_models/BAR_00/Airfoils/OpenFAST_BAR_00_AF09_Coords.txt,sha256=BVvI67kgdGH5jnU6ta7JIEy2ecue_ZXToDz4C10gUmw,9209
openfast_python/openfast/test/test_data/OpenFAST_models/BAR_00/Airfoils/OpenFAST_BAR_00_AF10_Coords.txt,sha256=WkkptinJUJhejxnL9sQF8nLgs9Tu5t59m4jKWCh-Vrg,9209
openfast_python/openfast/test/test_data/OpenFAST_models/BAR_00/Airfoils/OpenFAST_BAR_00_AF11_Coords.txt,sha256=zrcSFekqg2OIWNshpj0jxGNfnTsafRIUA9TJigC8Zaw,9209
openfast_python/openfast/test/test_data/OpenFAST_models/BAR_00/Airfoils/OpenFAST_BAR_00_AF12_Coords.txt,sha256=U-_WcCceHO3pXzdBwy88GycgLBKbHgI6OrFIosOfqKQ,9209
openfast_python/openfast/test/test_data/OpenFAST_models/BAR_00/Airfoils/OpenFAST_BAR_00_AF13_Coords.txt,sha256=1FJSBA77Ex0HgJMPxLac_DJ_CPrcooOt8vdHJ4XL0ys,9209
openfast_python/openfast/test/test_data/OpenFAST_models/BAR_00/Airfoils/OpenFAST_BAR_00_AF14_Coords.txt,sha256=WoSNRFYBf4tyLinJmI82yd4lS3JmJRXwhhsARC3x2c0,9209
openfast_python/openfast/test/test_data/OpenFAST_models/BAR_00/Airfoils/OpenFAST_BAR_00_AF15_Coords.txt,sha256=5Xz0ePQ1h7yV_3DSmyb4H9qFqGunGwW4P8HhHAT-x-0,9209
openfast_python/openfast/test/test_data/OpenFAST_models/BAR_00/Airfoils/OpenFAST_BAR_00_AF16_Coords.txt,sha256=S66NctPaMmjNBMPH5D8NDF-yHH80au-l916mKmcl64I,9209
openfast_python/openfast/test/test_data/OpenFAST_models/BAR_00/Airfoils/OpenFAST_BAR_00_AF17_Coords.txt,sha256=4l9-6XCqaqseK_OhSRFs2Q9hHgHiKPl7whX12_LyKM8,9209
openfast_python/openfast/test/test_data/OpenFAST_models/BAR_00/Airfoils/OpenFAST_BAR_00_AF18_Coords.txt,sha256=gfuLrp7mtIJ0Z1kFVmyZs4Gt-j9y9B4tEI5SYOQdyb8,9209
openfast_python/openfast/test/test_data/OpenFAST_models/BAR_00/Airfoils/OpenFAST_BAR_00_AF19_Coords.txt,sha256=W2rBSeCCnOmHWV0_ySeEJE1JpfGJ9s1fQMmFXiSJsW8,9209
openfast_python/openfast/test/test_data/OpenFAST_models/BAR_00/Airfoils/OpenFAST_BAR_00_AF20_Coords.txt,sha256=L4P3nDBx2FljcrdqhG32XpSjlYWxafEaTGlyBX3kKkY,9209
openfast_python/openfast/test/test_data/OpenFAST_models/BAR_00/Airfoils/OpenFAST_BAR_00_AF21_Coords.txt,sha256=bcBEKXNLEev-8Nz9K8tGuik3wsRUkCLMiINnzqTWSR8,9209
openfast_python/openfast/test/test_data/OpenFAST_models/BAR_00/Airfoils/OpenFAST_BAR_00_AF22_Coords.txt,sha256=vOisCxN4Jb4UdvdpKxqV4U4h1cvuMgNq5RH0nSeZ9o4,9209
openfast_python/openfast/test/test_data/OpenFAST_models/BAR_00/Airfoils/OpenFAST_BAR_00_AF23_Coords.txt,sha256=mZzNaK0jAcOz9sHsK3m88xYQxmB5QX7l1EU2nfmJ-CM,9209
openfast_python/openfast/test/test_data/OpenFAST_models/BAR_00/Airfoils/OpenFAST_BAR_00_AF24_Coords.txt,sha256=FPKnCAifqNN-P6yKkwRX1TjTaV1WaAEKKnzfAveiy5s,9209
openfast_python/openfast/test/test_data/OpenFAST_models/BAR_00/Airfoils/OpenFAST_BAR_00_AF25_Coords.txt,sha256=Yg0MvQ1tAqzv8pj1gGrlNUW7FjVP7ngeqLKcoUn4fWs,9209
openfast_python/openfast/test/test_data/OpenFAST_models/BAR_00/Airfoils/OpenFAST_BAR_00_AF26_Coords.txt,sha256=fXcfFnGJaJ3b0JRfWPc0in-vzYyImwWSKfoSZfZppyk,9209
openfast_python/openfast/test/test_data/OpenFAST_models/BAR_00/Airfoils/OpenFAST_BAR_00_AF27_Coords.txt,sha256=uOGibmjdFQtTRBKZzbE7akzvJ78DQgRzX3BqcYHmpj4,9209
openfast_python/openfast/test/test_data/OpenFAST_models/BAR_00/Airfoils/OpenFAST_BAR_00_AF28_Coords.txt,sha256=B8xxQwOiqMjKh6vPPn7FSE1kGMn7y8YIb8pslsKGwvc,9209
openfast_python/openfast/test/test_data/OpenFAST_models/BAR_00/Airfoils/OpenFAST_BAR_00_AF29_Coords.txt,sha256=JCJKif_NMXQRkXI60E28s8kP3uG7pFq3yv34dwcm-5c,9209
openfast_python/openfast/test/test_data/OpenFAST_models/BAR_00/Airfoils/OpenFAST_BAR_00_AeroDyn15_Polar_00.dat,sha256=R_DWI7AA0MLc_eIQ8p17r0uhlb1urzRoGfRqGmpZsrs,24537
openfast_python/openfast/test/test_data/OpenFAST_models/BAR_00/Airfoils/OpenFAST_BAR_00_AeroDyn15_Polar_01.dat,sha256=SlFvQU7SMBqVvrSWcAfNXX4Lbuo_vWJTuS-WcIwPD_g,24537
openfast_python/openfast/test/test_data/OpenFAST_models/BAR_00/Airfoils/OpenFAST_BAR_00_AeroDyn15_Polar_02.dat,sha256=OijfNMsZA0d6TAa9IAcvVdLZ4a48NTdx4CGn31IHnpM,24537
openfast_python/openfast/test/test_data/OpenFAST_models/BAR_00/Airfoils/OpenFAST_BAR_00_AeroDyn15_Polar_03.dat,sha256=zAanzmiwYkaqfkz3lPwVJrTDK2xACw5n7l9zffe7DtA,24537
openfast_python/openfast/test/test_data/OpenFAST_models/BAR_00/Airfoils/OpenFAST_BAR_00_AeroDyn15_Polar_04.dat,sha256=6d6RGylnMt_ygfOZguO4VQV-4oYoDtn2wDhqr_EnlBg,24537
openfast_python/openfast/test/test_data/OpenFAST_models/BAR_00/Airfoils/OpenFAST_BAR_00_AeroDyn15_Polar_05.dat,sha256=jZr1Z2-GuTAj3FNZ-t34S7kOMQshRlcZvo5SvBsolVw,24537
openfast_python/openfast/test/test_data/OpenFAST_models/BAR_00/Airfoils/OpenFAST_BAR_00_AeroDyn15_Polar_06.dat,sha256=l4Tsoc8UhFlV6sGkVRNs3e-kZUHjiKpgNQ_j87TE2Tk,24537
openfast_python/openfast/test/test_data/OpenFAST_models/BAR_00/Airfoils/OpenFAST_BAR_00_AeroDyn15_Polar_07.dat,sha256=0up_U05RtZwmBIbw6_q__a0cFqOTTERX065rVp7uYWY,24537
openfast_python/openfast/test/test_data/OpenFAST_models/BAR_00/Airfoils/OpenFAST_BAR_00_AeroDyn15_Polar_08.dat,sha256=QErZh1CLPHWvf2bxkGCuLLG5s8aUQo0lveKEjb1PNHc,24537
openfast_python/openfast/test/test_data/OpenFAST_models/BAR_00/Airfoils/OpenFAST_BAR_00_AeroDyn15_Polar_09.dat,sha256=E8oY_cvnu83R0vGRa9d0XrNg6z7YGp4xOIVOsakq1FQ,24537
openfast_python/openfast/test/test_data/OpenFAST_models/BAR_00/Airfoils/OpenFAST_BAR_00_AeroDyn15_Polar_10.dat,sha256=-duSl90v9mni__cSrGcCMFSRelsHq7OtZUs1Bn9Y_Eo,24537
openfast_python/openfast/test/test_data/OpenFAST_models/BAR_00/Airfoils/OpenFAST_BAR_00_AeroDyn15_Polar_11.dat,sha256=t4jHflqEU_DywcFK8YKkuQCgo12sD0x03L61ZG8LnYk,24537
openfast_python/openfast/test/test_data/OpenFAST_models/BAR_00/Airfoils/OpenFAST_BAR_00_AeroDyn15_Polar_12.dat,sha256=PjBv5runthMNr6C2lWlFi9fvLVW4TRcgh-3-ZsyPAxM,24537
openfast_python/openfast/test/test_data/OpenFAST_models/BAR_00/Airfoils/OpenFAST_BAR_00_AeroDyn15_Polar_13.dat,sha256=fdSsiU6VOMTSCGY9RWMcMAP5ffravAD_xjmAHTZkd6g,24537
openfast_python/openfast/test/test_data/OpenFAST_models/BAR_00/Airfoils/OpenFAST_BAR_00_AeroDyn15_Polar_14.dat,sha256=CdHezph6EFGGezWQh9oC6iQK3YBgbgO9CxX-vgScdOw,24537
openfast_python/openfast/test/test_data/OpenFAST_models/BAR_00/Airfoils/OpenFAST_BAR_00_AeroDyn15_Polar_15.dat,sha256=2znt18c9Gfm265Q38173rShX_IW2OXe3AIWG3708tRs,24537
openfast_python/openfast/test/test_data/OpenFAST_models/BAR_00/Airfoils/OpenFAST_BAR_00_AeroDyn15_Polar_16.dat,sha256=ys6wh1RYXD6BxfSkDsVXs9JP_6AHUv-Bhoc7gcpBef4,24537
openfast_python/openfast/test/test_data/OpenFAST_models/BAR_00/Airfoils/OpenFAST_BAR_00_AeroDyn15_Polar_17.dat,sha256=wq3tH4YecnTLXmAhPVzDdElcCERsSQc9FgfooI2-BEg,24537
openfast_python/openfast/test/test_data/OpenFAST_models/BAR_00/Airfoils/OpenFAST_BAR_00_AeroDyn15_Polar_18.dat,sha256=RGzvp8ZaXMvnvFUSB60Gu9H7LFbC_62S5Y8oZZD7FUY,24537
openfast_python/openfast/test/test_data/OpenFAST_models/BAR_00/Airfoils/OpenFAST_BAR_00_AeroDyn15_Polar_19.dat,sha256=_V56HcriYMO1tcEOL0OagunWteLIJ0oOFeFsVwJaRsU,24537
openfast_python/openfast/test/test_data/OpenFAST_models/BAR_00/Airfoils/OpenFAST_BAR_00_AeroDyn15_Polar_20.dat,sha256=BMXtiajc4wqZou5PWeCUFaiWvz4EliRLSPEIjRq1phw,24537
openfast_python/openfast/test/test_data/OpenFAST_models/BAR_00/Airfoils/OpenFAST_BAR_00_AeroDyn15_Polar_21.dat,sha256=08gJj3rc69vpX_Sf6meCs9ypReT1LtpzA52h7B8lCPM,24537
openfast_python/openfast/test/test_data/OpenFAST_models/BAR_00/Airfoils/OpenFAST_BAR_00_AeroDyn15_Polar_22.dat,sha256=x4GdEya6yye11Os5SQ53Hrq1zbRsmV5WHm2Gbnh8vOs,24537
openfast_python/openfast/test/test_data/OpenFAST_models/BAR_00/Airfoils/OpenFAST_BAR_00_AeroDyn15_Polar_23.dat,sha256=tB1sLB6ctK9PqNiZsR9wmCOt4EdxJQhOS4nBY2K0gE4,24537
openfast_python/openfast/test/test_data/OpenFAST_models/BAR_00/Airfoils/OpenFAST_BAR_00_AeroDyn15_Polar_24.dat,sha256=l77QXoDn2P1yMjvmt7dXtmsOT_F7yL9azVnIw97GEVI,24537
openfast_python/openfast/test/test_data/OpenFAST_models/BAR_00/Airfoils/OpenFAST_BAR_00_AeroDyn15_Polar_25.dat,sha256=ql_GSLfn9bUtH3vYybEP59ZXiLW5gRjRtx4QiTdopW4,24537
openfast_python/openfast/test/test_data/OpenFAST_models/BAR_00/Airfoils/OpenFAST_BAR_00_AeroDyn15_Polar_26.dat,sha256=yJAGcugHcznwuORdmwwuk-Irzws2i3sd4WHK5KvNZ6Q,24537
openfast_python/openfast/test/test_data/OpenFAST_models/BAR_00/Airfoils/OpenFAST_BAR_00_AeroDyn15_Polar_27.dat,sha256=Rf2tqm1TOZ-n2HwvF3uW87UZXBoQPrVfvEok51szzBE,24537
openfast_python/openfast/test/test_data/OpenFAST_models/BAR_00/Airfoils/OpenFAST_BAR_00_AeroDyn15_Polar_28.dat,sha256=1GmgFifiMiCYrgAf2ufpR_4XoZyOqGEYoRVRvnKCGVk,24537
openfast_python/openfast/test/test_data/OpenFAST_models/BAR_00/Airfoils/OpenFAST_BAR_00_AeroDyn15_Polar_29.dat,sha256=qqlzhRTW9sq9j8evbsSHZGvmBuWx-bAcPyS1V-M0VYE,24537
openfast_python/openfast/test/test_data/OpenFAST_models/BAR_00/Cp_Ct_Cq.BAR.txt,sha256=dTsQIm30op6zFSY-1wCUMEI3ZBhsGpcGblKJ2S5ABMQ,172799
openfast_python/openfast/test/test_data/OpenFAST_models/BAR_00/OpenFAST_BAR_00.fst,sha256=lpovRviblytygynWqISzhvK2VHrh-DGVExZKHZbWfCc,7625
openfast_python/openfast/test/test_data/OpenFAST_models/BAR_00/OpenFAST_BAR_00_AeroDyn15.dat,sha256=xkoh4yCqFNFPEh62-QT7AOeL4WsWjnvt41zpR49Tr4A,11304
openfast_python/openfast/test/test_data/OpenFAST_models/BAR_00/OpenFAST_BAR_00_AeroDyn15_blade.dat,sha256=nN2ZaWCTK3yeIm7uhsF3RpvODflW46Oy539hKcaAAgI,4907
openfast_python/openfast/test/test_data/OpenFAST_models/BAR_00/OpenFAST_BAR_00_BeamDyn.dat,sha256=Q0N-HSwMM0rSrLpGa58Tm6KgJKUhYjaJ9vM0yQsykQM,9683
openfast_python/openfast/test/test_data/OpenFAST_models/BAR_00/OpenFAST_BAR_00_BeamDyn_Blade.dat,sha256=J5K6pmjMcTXGtOKSmyZopj6abgzSQMVEhB11OUHpLDk,51153
openfast_python/openfast/test/test_data/OpenFAST_models/BAR_00/OpenFAST_BAR_00_Cp_Ct_Cq.txt,sha256=Qlns2GIPF7eRS_GCpRpfxWxF8p_B8q6xuWxEzUt1sag,87470
openfast_python/openfast/test/test_data/OpenFAST_models/BAR_00/OpenFAST_BAR_00_DISCON.IN,sha256=41xpPTIXThEmFN7PiEzbcWkPCUcOXBWSJP_91kg7x4o,15286
openfast_python/openfast/test/test_data/OpenFAST_models/BAR_00/OpenFAST_BAR_00_ElastoDyn.dat,sha256=MbjK7-dO1J7je9w4qtD5SzotbKmI2Ojuvge-Q21nq5Y,15071
openfast_python/openfast/test/test_data/OpenFAST_models/BAR_00/OpenFAST_BAR_00_ElastoDyn_blade.dat,sha256=KTrMBSvs6tYPTPUdiWxi7Pk8AIJE3zTHq42OuKYuL5Y,6491
openfast_python/openfast/test/test_data/OpenFAST_models/BAR_00/OpenFAST_BAR_00_ElastoDyn_tower.dat,sha256=0hb0pHvl_xoz0-1ExvHeoFyH76RARXSPmmS_jDCXVTU,8591
openfast_python/openfast/test/test_data/OpenFAST_models/BAR_00/OpenFAST_BAR_00_InflowFile.dat,sha256=RFhp52skR67rCkMllfiI9jFrhltFZ0rXKKfwajtFeuw,7557
openfast_python/openfast/test/test_data/OpenFAST_models/BAR_00/OpenFAST_BAR_00_ServoDyn.dat,sha256=HjEHFJKelEczjmtoBblCBraRMHgx-0nFw68llI_kRPE,12656
openfast_python/openfast/test/test_data/OpenFAST_models/IEA-15-240-RWT/IEA-15-240-RWT/Airfoils/IEA-15-240-RWT_AeroDyn15_Polar_00.dat,sha256=iLyD9UTLG365CgYtD86iDN0JQ1HmpWie-hImHyfLe00,17489
openfast_python/openfast/test/test_data/OpenFAST_models/IEA-15-240-RWT/IEA-15-240-RWT/Airfoils/IEA-15-240-RWT_AeroDyn15_Polar_00_Coords.txt,sha256=Cir9p1ZgtHVElKEgNGkITcK4qYXHH5pKYAs-pIYotnE,9212
openfast_python/openfast/test/test_data/OpenFAST_models/IEA-15-240-RWT/IEA-15-240-RWT/Airfoils/IEA-15-240-RWT_AeroDyn15_Polar_01.dat,sha256=5UcXGJS6oxyVXI1qJEN85Y9BwSUqBpaiu2QmifUXri4,17489
openfast_python/openfast/test/test_data/OpenFAST_models/IEA-15-240-RWT/IEA-15-240-RWT/Airfoils/IEA-15-240-RWT_AeroDyn15_Polar_01_Coords.txt,sha256=ZXDqxkAFaFx8llYmD5uI6Y1o-PBEmszax7TvYwOeGpU,9212
openfast_python/openfast/test/test_data/OpenFAST_models/IEA-15-240-RWT/IEA-15-240-RWT/Airfoils/IEA-15-240-RWT_AeroDyn15_Polar_02.dat,sha256=HFU9Z8uRcV8QkdABsCNf7N4hZO5llHSzKLZYQ5fbYPY,17489
openfast_python/openfast/test/test_data/OpenFAST_models/IEA-15-240-RWT/IEA-15-240-RWT/Airfoils/IEA-15-240-RWT_AeroDyn15_Polar_02_Coords.txt,sha256=ka9SwRLSX8KU5Zlcj5viSliFE_wI-giIJPKN8Clf7os,9212
openfast_python/openfast/test/test_data/OpenFAST_models/IEA-15-240-RWT/IEA-15-240-RWT/Airfoils/IEA-15-240-RWT_AeroDyn15_Polar_03.dat,sha256=awHtqVMwOTN0fxGqL6HRcrHkd3fx4vOAcwG-qfu_4-8,17489
openfast_python/openfast/test/test_data/OpenFAST_models/IEA-15-240-RWT/IEA-15-240-RWT/Airfoils/IEA-15-240-RWT_AeroDyn15_Polar_03_Coords.txt,sha256=o01fhuGoVHYNQ-xNnhgN9obj0-GBPA-g87ARFYB7e6w,9212
openfast_python/openfast/test/test_data/OpenFAST_models/IEA-15-240-RWT/IEA-15-240-RWT/Airfoils/IEA-15-240-RWT_AeroDyn15_Polar_04.dat,sha256=f6-gsLPuFPpVnc_wW0xzUE_3g1dUqGRfUwCCRazx74Q,17489
openfast_python/openfast/test/test_data/OpenFAST_models/IEA-15-240-RWT/IEA-15-240-RWT/Airfoils/IEA-15-240-RWT_AeroDyn15_Polar_04_Coords.txt,sha256=KDaxEylYvYsucwyKiDB4e9x1XUNWbOcY1LjgHf1N0PM,9212
openfast_python/openfast/test/test_data/OpenFAST_models/IEA-15-240-RWT/IEA-15-240-RWT/Airfoils/IEA-15-240-RWT_AeroDyn15_Polar_05.dat,sha256=EHzypz6MFTuH76lNIYPi4flmudnkzXADisGSZbU-maM,17489
openfast_python/openfast/test/test_data/OpenFAST_models/IEA-15-240-RWT/IEA-15-240-RWT/Airfoils/IEA-15-240-RWT_AeroDyn15_Polar_05_Coords.txt,sha256=kjmv1T4SDwrxvD-rxbYPnlVYYwY63IZ9MXkZE_QI3Mk,9212
openfast_python/openfast/test/test_data/OpenFAST_models/IEA-15-240-RWT/IEA-15-240-RWT/Airfoils/IEA-15-240-RWT_AeroDyn15_Polar_06.dat,sha256=JuvTuYyPRCD9DHfDzJC70B0rd7RTvWNS-5XjbNJIIKw,17489
openfast_python/openfast/test/test_data/OpenFAST_models/IEA-15-240-RWT/IEA-15-240-RWT/Airfoils/IEA-15-240-RWT_AeroDyn15_Polar_06_Coords.txt,sha256=t7TOTxnfocq3fAo3idJAd6rAgnCpEmOhxvHyRkoQJTQ,9212
openfast_python/openfast/test/test_data/OpenFAST_models/IEA-15-240-RWT/IEA-15-240-RWT/Airfoils/IEA-15-240-RWT_AeroDyn15_Polar_07.dat,sha256=VaeqM2xTNMcdAQ1jO-JC118qlFcj7oG9ZoYlolkOh8U,17489
openfast_python/openfast/test/test_data/OpenFAST_models/IEA-15-240-RWT/IEA-15-240-RWT/Airfoils/IEA-15-240-RWT_AeroDyn15_Polar_07_Coords.txt,sha256=W6O8KSk_yuQg1wce1Ma089ZKzU2g-1rrLavXvW-AfqU,9212
openfast_python/openfast/test/test_data/OpenFAST_models/IEA-15-240-RWT/IEA-15-240-RWT/Airfoils/IEA-15-240-RWT_AeroDyn15_Polar_08.dat,sha256=yJTEzq7ohCdhU0JpSCN4aX9EjZCTNKzHZHC4mh4OV18,17489
openfast_python/openfast/test/test_data/OpenFAST_models/IEA-15-240-RWT/IEA-15-240-RWT/Airfoils/IEA-15-240-RWT_AeroDyn15_Polar_08_Coords.txt,sha256=wIMkAYCddFtLMTpSdw_0efB5jW3Q0FBtWKaH8anM95A,9212
openfast_python/openfast/test/test_data/OpenFAST_models/IEA-15-240-RWT/IEA-15-240-RWT/Airfoils/IEA-15-240-RWT_AeroDyn15_Polar_09.dat,sha256=U0Yk12LmYxBfVYyCec5HHVqZE30YyzT6cisPRw_ttBo,17489
openfast_python/openfast/test/test_data/OpenFAST_models/IEA-15-240-RWT/IEA-15-240-RWT/Airfoils/IEA-15-240-RWT_AeroDyn15_Polar_09_Coords.txt,sha256=5jm6xsDJxD2i1rTFS_020G3ve49AT0Vs-huFvuUSOuw,9212
openfast_python/openfast/test/test_data/OpenFAST_models/IEA-15-240-RWT/IEA-15-240-RWT/Airfoils/IEA-15-240-RWT_AeroDyn15_Polar_10.dat,sha256=g918guxj-DVAMYx7kis_EKJFJDNIjopXqj42fBtsWJI,17489
openfast_python/openfast/test/test_data/OpenFAST_models/IEA-15-240-RWT/IEA-15-240-RWT/Airfoils/IEA-15-240-RWT_AeroDyn15_Polar_10_Coords.txt,sha256=pNEF36ceesXwMaJJ-hy6zCROcPsUgMXgJfVmuDDL5l4,9212
openfast_python/openfast/test/test_data/OpenFAST_models/IEA-15-240-RWT/IEA-15-240-RWT/Airfoils/IEA-15-240-RWT_AeroDyn15_Polar_11.dat,sha256=-1UioxFjHVyScetGi31C-B7Gl2qhukllVhnl4qdKRFM,17489
openfast_python/openfast/test/test_data/OpenFAST_models/IEA-15-240-RWT/IEA-15-240-RWT/Airfoils/IEA-15-240-RWT_AeroDyn15_Polar_11_Coords.txt,sha256=B3TZvX0syrLtDUSSS7Dc_cRfDWlfuAn7tF9O3Q8GjCc,9212
openfast_python/openfast/test/test_data/OpenFAST_models/IEA-15-240-RWT/IEA-15-240-RWT/Airfoils/IEA-15-240-RWT_AeroDyn15_Polar_12.dat,sha256=NTAMsJyhXYsXE_us3jROIDE6gHC6osDqBi5r16SNq58,17489
openfast_python/openfast/test/test_data/OpenFAST_models/IEA-15-240-RWT/IEA-15-240-RWT/Airfoils/IEA-15-240-RWT_AeroDyn15_Polar_12_Coords.txt,sha256=MOyXRh3ma2-ZFh6ai-bFtD-Dq8bYcBQRmNBVyYZO2rc,9212
openfast_python/openfast/test/test_data/OpenFAST_models/IEA-15-240-RWT/IEA-15-240-RWT/Airfoils/IEA-15-240-RWT_AeroDyn15_Polar_13.dat,sha256=kUaeACJJlFzVZ5Z0JhhCbi0D6fPeyh8bTXddw0HRLSs,17489
openfast_python/openfast/test/test_data/OpenFAST_models/IEA-15-240-RWT/IEA-15-240-RWT/Airfoils/IEA-15-240-RWT_AeroDyn15_Polar_13_Coords.txt,sha256=ZjNrfiXfyak8MEZ7N69FSKLtO0i9TXNDwA_ZecXZUVU,9212
openfast_python/openfast/test/test_data/OpenFAST_models/IEA-15-240-RWT/IEA-15-240-RWT/Airfoils/IEA-15-240-RWT_AeroDyn15_Polar_14.dat,sha256=8u6SbYqzH9BnVqi8VR8Wk2YRE8VlRdnF6pi4Jq7JTGo,17489
openfast_python/openfast/test/test_data/OpenFAST_models/IEA-15-240-RWT/IEA-15-240-RWT/Airfoils/IEA-15-240-RWT_AeroDyn15_Polar_14_Coords.txt,sha256=t61xhIQujZKBccpI9G0i_Z61JX7Izf_B4MI1NTrv_uo,9212
openfast_python/openfast/test/test_data/OpenFAST_models/IEA-15-240-RWT/IEA-15-240-RWT/Airfoils/IEA-15-240-RWT_AeroDyn15_Polar_15.dat,sha256=ufCR7S84oBNqcSelmMDmK8cVR9-jhDzG7IkVYpQ2Xso,17489
openfast_python/openfast/test/test_data/OpenFAST_models/IEA-15-240-RWT/IEA-15-240-RWT/Airfoils/IEA-15-240-RWT_AeroDyn15_Polar_15_Coords.txt,sha256=-6p0gHLtlnGZXUxcSTKmc0LQtUMRvaPRkfuRx2-mjPA,9212
openfast_python/openfast/test/test_data/OpenFAST_models/IEA-15-240-RWT/IEA-15-240-RWT/Airfoils/IEA-15-240-RWT_AeroDyn15_Polar_16.dat,sha256=BO2Y6oj1uJSNzL2P3FN5pb7eGd3UMeshEqN3FxMGudA,17489
openfast_python/openfast/test/test_data/OpenFAST_models/IEA-15-240-RWT/IEA-15-240-RWT/Airfoils/IEA-15-240-RWT_AeroDyn15_Polar_16_Coords.txt,sha256=Oo5C_Yazfca_b5OJZ1bNUasW785X9uzf0jOzfqyITtI,9212
openfast_python/openfast/test/test_data/OpenFAST_models/IEA-15-240-RWT/IEA-15-240-RWT/Airfoils/IEA-15-240-RWT_AeroDyn15_Polar_17.dat,sha256=ptW1qjLTkjYtT515CY_Vv2hq1sdOw6vBqiFY_rPD5u8,17489
openfast_python/openfast/test/test_data/OpenFAST_models/IEA-15-240-RWT/IEA-15-240-RWT/Airfoils/IEA-15-240-RWT_AeroDyn15_Polar_17_Coords.txt,sha256=t9NIX9XoHf7B3H2MgkMXwUG48773FM4_j8JcFxrwJkc,9212
openfast_python/openfast/test/test_data/OpenFAST_models/IEA-15-240-RWT/IEA-15-240-RWT/Airfoils/IEA-15-240-RWT_AeroDyn15_Polar_18.dat,sha256=r-TvyfpQXMV0qwjwwTUry9iJr0e_6g1LxGeldnA55qk,17489
openfast_python/openfast/test/test_data/OpenFAST_models/IEA-15-240-RWT/IEA-15-240-RWT/Airfoils/IEA-15-240-RWT_AeroDyn15_Polar_18_Coords.txt,sha256=Nt3YZjf9zb3iK_2ipGYBHPszxC2DeOEZPG5gSUMfpbE,9212
openfast_python/openfast/test/test_data/OpenFAST_models/IEA-15-240-RWT/IEA-15-240-RWT/Airfoils/IEA-15-240-RWT_AeroDyn15_Polar_19.dat,sha256=rvn15WxzzIYjmkXz--z-UQKE_GtRG_-jeb8WOy0cnMQ,17489
openfast_python/openfast/test/test_data/OpenFAST_models/IEA-15-240-RWT/IEA-15-240-RWT/Airfoils/IEA-15-240-RWT_AeroDyn15_Polar_19_Coords.txt,sha256=uIQImctW0_ic9TCYCjKSTlGak0evG5VXIx7DbUBASvo,9212
openfast_python/openfast/test/test_data/OpenFAST_models/IEA-15-240-RWT/IEA-15-240-RWT/Airfoils/IEA-15-240-RWT_AeroDyn15_Polar_20.dat,sha256=jjY2drp9UZYeUAc2568Y4-XioSVjPadTncNpDDckA7Q,17489
openfast_python/openfast/test/test_data/OpenFAST_models/IEA-15-240-RWT/IEA-15-240-RWT/Airfoils/IEA-15-240-RWT_AeroDyn15_Polar_20_Coords.txt,sha256=aUvnDwcUk0Imct68_abYEkIzsfOkZsVhrNIw_x4QE-M,9212
openfast_python/openfast/test/test_data/OpenFAST_models/IEA-15-240-RWT/IEA-15-240-RWT/Airfoils/IEA-15-240-RWT_AeroDyn15_Polar_21.dat,sha256=sjfC5pyb636M77BACNSrSitPnKjiONCPGXr1TX9DJYw,17489
openfast_python/openfast/test/test_data/OpenFAST_models/IEA-15-240-RWT/IEA-15-240-RWT/Airfoils/IEA-15-240-RWT_AeroDyn15_Polar_21_Coords.txt,sha256=w1P6t_Ez_xQ74QRMy-M-1GbEaUcY0gvvKRRq1DT2mwA,9212
openfast_python/openfast/test/test_data/OpenFAST_models/IEA-15-240-RWT/IEA-15-240-RWT/Airfoils/IEA-15-240-RWT_AeroDyn15_Polar_22.dat,sha256=24gByuSOXODB_MT88R64WTCqbaJhDEVfVfwJh-6Fqhs,17489
openfast_python/openfast/test/test_data/OpenFAST_models/IEA-15-240-RWT/IEA-15-240-RWT/Airfoils/IEA-15-240-RWT_AeroDyn15_Polar_22_Coords.txt,sha256=XCtnuA5DzFFvSzTZTcP8KUL2FaynnqRZzfigUgbPijY,9212
openfast_python/openfast/test/test_data/OpenFAST_models/IEA-15-240-RWT/IEA-15-240-RWT/Airfoils/IEA-15-240-RWT_AeroDyn15_Polar_23.dat,sha256=OshNnH8ER8QDj0fcNOK2WCJlyfusnGPspaUA4kT9hZU,17489
openfast_python/openfast/test/test_data/OpenFAST_models/IEA-15-240-RWT/IEA-15-240-RWT/Airfoils/IEA-15-240-RWT_AeroDyn15_Polar_23_Coords.txt,sha256=2X69m5sSviD4qaXk1qTbc1xjZg1-YqZkh7aS3g_jFVI,9212
openfast_python/openfast/test/test_data/OpenFAST_models/IEA-15-240-RWT/IEA-15-240-RWT/Airfoils/IEA-15-240-RWT_AeroDyn15_Polar_24.dat,sha256=vV8WWF-HZiVAeTgMvYYC1trA0R6KfvXvoLCkKWiWxIs,17489
openfast_python/openfast/test/test_data/OpenFAST_models/IEA-15-240-RWT/IEA-15-240-RWT/Airfoils/IEA-15-240-RWT_AeroDyn15_Polar_24_Coords.txt,sha256=IBdG7_ny4l8YEsg5hCLyGWh3LNmlT4AAkAcMpmDz0PI,9212
openfast_python/openfast/test/test_data/OpenFAST_models/IEA-15-240-RWT/IEA-15-240-RWT/Airfoils/IEA-15-240-RWT_AeroDyn15_Polar_25.dat,sha256=GdGURBCjJCDLFU8KtnHYbB3di58mmtFpNAiJdHkNyb4,17489
openfast_python/openfast/test/test_data/OpenFAST_models/IEA-15-240-RWT/IEA-15-240-RWT/Airfoils/IEA-15-240-RWT_AeroDyn15_Polar_25_Coords.txt,sha256=8pLMi2lRDAt8ktBFVvT-iuhJF6V6NNVOcgRM36SXV0k,9212
openfast_python/openfast/test/test_data/OpenFAST_models/IEA-15-240-RWT/IEA-15-240-RWT/Airfoils/IEA-15-240-RWT_AeroDyn15_Polar_26.dat,sha256=Bona5KD3Y1sUdIJo8RSYFnFh4DZIbVYPLimuFAR3i0g,17489
openfast_python/openfast/test/test_data/OpenFAST_models/IEA-15-240-RWT/IEA-15-240-RWT/Airfoils/IEA-15-240-RWT_AeroDyn15_Polar_26_Coords.txt,sha256=JmWAxyWqXgHez1Cc9mPLFHoWzf48FB4YDJOZCFnBXVg,9212
openfast_python/openfast/test/test_data/OpenFAST_models/IEA-15-240-RWT/IEA-15-240-RWT/Airfoils/IEA-15-240-RWT_AeroDyn15_Polar_27.dat,sha256=oNVUnkF8F2z6D0kGVja2hf4B7-QuhgLPB4Rp6hUfZd0,17489
openfast_python/openfast/test/test_data/OpenFAST_models/IEA-15-240-RWT/IEA-15-240-RWT/Airfoils/IEA-15-240-RWT_AeroDyn15_Polar_27_Coords.txt,sha256=F1ukINmyvsro3WGZ3GRTvc6Nm-S14uW_V7jSMB23ZIg,9212
openfast_python/openfast/test/test_data/OpenFAST_models/IEA-15-240-RWT/IEA-15-240-RWT/Airfoils/IEA-15-240-RWT_AeroDyn15_Polar_28.dat,sha256=lWfsbQnFFKQ_uYk8sZ_b7PYHbs_fschlEnscaAhSLqM,17489
openfast_python/openfast/test/test_data/OpenFAST_models/IEA-15-240-RWT/IEA-15-240-RWT/Airfoils/IEA-15-240-RWT_AeroDyn15_Polar_28_Coords.txt,sha256=uo8ywKkDFW0UFs_h0wV682AicSLuCw-vDfLrVJDZBzs,9212
openfast_python/openfast/test/test_data/OpenFAST_models/IEA-15-240-RWT/IEA-15-240-RWT/Airfoils/IEA-15-240-RWT_AeroDyn15_Polar_29.dat,sha256=NuWEVW75nflQzKVZDWxgonxJJExShq1BfUwGWs2bF58,17489
openfast_python/openfast/test/test_data/OpenFAST_models/IEA-15-240-RWT/IEA-15-240-RWT/Airfoils/IEA-15-240-RWT_AeroDyn15_Polar_29_Coords.txt,sha256=t-yDeio5nfU_5yHmc_JwB759zyfd6ql659f3yS1rFZY,9212
openfast_python/openfast/test/test_data/OpenFAST_models/IEA-15-240-RWT/IEA-15-240-RWT/Airfoils/IEA-15-240-RWT_AeroDyn15_Polar_30.dat,sha256=odlQhOAhibx7XRIp9-Qprlcl5dhXo5v4VtwhQBBXKa0,17489
openfast_python/openfast/test/test_data/OpenFAST_models/IEA-15-240-RWT/IEA-15-240-RWT/Airfoils/IEA-15-240-RWT_AeroDyn15_Polar_30_Coords.txt,sha256=5C75tVUmAdkTiS7lRvXe1tZ7A7g0tO5dtPI0Ixhgzk4,9212
openfast_python/openfast/test/test_data/OpenFAST_models/IEA-15-240-RWT/IEA-15-240-RWT/Airfoils/IEA-15-240-RWT_AeroDyn15_Polar_31.dat,sha256=7hJ2dqn0LUs5UVmm44FY7ooqxe2V-ikU4vxLy9pdL1A,17489
openfast_python/openfast/test/test_data/OpenFAST_models/IEA-15-240-RWT/IEA-15-240-RWT/Airfoils/IEA-15-240-RWT_AeroDyn15_Polar_31_Coords.txt,sha256=vOJAxmlfACeulRUxiwMVqVXTElGYKlmGQ7X0R0kcjek,9212
openfast_python/openfast/test/test_data/OpenFAST_models/IEA-15-240-RWT/IEA-15-240-RWT/Airfoils/IEA-15-240-RWT_AeroDyn15_Polar_32.dat,sha256=132b0WzqXImi9j0SsT_hwK9EvTyNgB1bX_Cq73tImIc,17489
openfast_python/openfast/test/test_data/OpenFAST_models/IEA-15-240-RWT/IEA-15-240-RWT/Airfoils/IEA-15-240-RWT_AeroDyn15_Polar_32_Coords.txt,sha256=jBxY3tk71hEZNeHGWpuUeoQ7TNlUv8aKTcB2Lxz1Bq4,9212
openfast_python/openfast/test/test_data/OpenFAST_models/IEA-15-240-RWT/IEA-15-240-RWT/Airfoils/IEA-15-240-RWT_AeroDyn15_Polar_33.dat,sha256=Z1e8fyzN-SEQ1mfkREHdxNt8kQEcNhvqZGDa6lWH4GI,17489
openfast_python/openfast/test/test_data/OpenFAST_models/IEA-15-240-RWT/IEA-15-240-RWT/Airfoils/IEA-15-240-RWT_AeroDyn15_Polar_33_Coords.txt,sha256=yAm0BSr6fgKO4tL3alnmftLWDlu3EruuTY-3mic40f0,9212
openfast_python/openfast/test/test_data/OpenFAST_models/IEA-15-240-RWT/IEA-15-240-RWT/Airfoils/IEA-15-240-RWT_AeroDyn15_Polar_34.dat,sha256=o8vKd23lgk20AXSJ52wuldTB6Es9zcX5ujScxIvZn2Y,17489
openfast_python/openfast/test/test_data/OpenFAST_models/IEA-15-240-RWT/IEA-15-240-RWT/Airfoils/IEA-15-240-RWT_AeroDyn15_Polar_34_Coords.txt,sha256=owGRo9HGUOWGu9SM_znacgA4zXGA9zDVYO8r2_zfI84,9212
openfast_python/openfast/test/test_data/OpenFAST_models/IEA-15-240-RWT/IEA-15-240-RWT/Airfoils/IEA-15-240-RWT_AeroDyn15_Polar_35.dat,sha256=XaHgH7D_0v8xv8s2cge1fBNWvfcqjHPYvk_IYJtfJv8,17489
openfast_python/openfast/test/test_data/OpenFAST_models/IEA-15-240-RWT/IEA-15-240-RWT/Airfoils/IEA-15-240-RWT_AeroDyn15_Polar_35_Coords.txt,sha256=UlZ5Uj3pEI5igysbHT_enqtFqxDYnWWqR8niKWSqnvQ,9212
openfast_python/openfast/test/test_data/OpenFAST_models/IEA-15-240-RWT/IEA-15-240-RWT/Airfoils/IEA-15-240-RWT_AeroDyn15_Polar_36.dat,sha256=RSjA7RhX1-i9INQpxn4MYfS0vGh-34TXbFbNBokTuZA,17489
openfast_python/openfast/test/test_data/OpenFAST_models/IEA-15-240-RWT/IEA-15-240-RWT/Airfoils/IEA-15-240-RWT_AeroDyn15_Polar_36_Coords.txt,sha256=H6FeV97oKTS2U4PeC1E08IbLUG3LDSKyqLlCEG-7dV4,9212
openfast_python/openfast/test/test_data/OpenFAST_models/IEA-15-240-RWT/IEA-15-240-RWT/Airfoils/IEA-15-240-RWT_AeroDyn15_Polar_37.dat,sha256=WTS7pt4RjPkpJ43fa7wegHt3tBmfDODq1LUagbldfpE,17489
openfast_python/openfast/test/test_data/OpenFAST_models/IEA-15-240-RWT/IEA-15-240-RWT/Airfoils/IEA-15-240-RWT_AeroDyn15_Polar_37_Coords.txt,sha256=ThNGYlNkeUqwcdnRTxKBUtEZpSfN9T6_vUooraUfHTc,9212
openfast_python/openfast/test/test_data/OpenFAST_models/IEA-15-240-RWT/IEA-15-240-RWT/Airfoils/IEA-15-240-RWT_AeroDyn15_Polar_38.dat,sha256=x4N2kADhVJHvNkllFVkFZUYLD8zGX1JxaW5y8VC0nh4,17489
openfast_python/openfast/test/test_data/OpenFAST_models/IEA-15-240-RWT/IEA-15-240-RWT/Airfoils/IEA-15-240-RWT_AeroDyn15_Polar_38_Coords.txt,sha256=21aDsIS343fxe_Ev1-WPmGgpPG7o9ozPdVg7jpngaCc,9212
openfast_python/openfast/test/test_data/OpenFAST_models/IEA-15-240-RWT/IEA-15-240-RWT/Airfoils/IEA-15-240-RWT_AeroDyn15_Polar_39.dat,sha256=RwEqYjlh8oFzlOkR7RW0TR2qp6F8jMl6PTfIC9JcgKQ,17489
openfast_python/openfast/test/test_data/OpenFAST_models/IEA-15-240-RWT/IEA-15-240-RWT/Airfoils/IEA-15-240-RWT_AeroDyn15_Polar_39_Coords.txt,sha256=h8QX7j9uLyAdS0AVphaoLz-ew6Oe7Gp3hm3NHvKPxWo,9212
openfast_python/openfast/test/test_data/OpenFAST_models/IEA-15-240-RWT/IEA-15-240-RWT/Airfoils/IEA-15-240-RWT_AeroDyn15_Polar_40.dat,sha256=Oy1iz8JsAM0qGXlrAL_wULkHLZyp1CayzUfE2vIZseg,17489
openfast_python/openfast/test/test_data/OpenFAST_models/IEA-15-240-RWT/IEA-15-240-RWT/Airfoils/IEA-15-240-RWT_AeroDyn15_Polar_40_Coords.txt,sha256=vqN898EbMxRyEgWhfXKLCdNExSYeftNmJO1dYSG66hE,9212
openfast_python/openfast/test/test_data/OpenFAST_models/IEA-15-240-RWT/IEA-15-240-RWT/Airfoils/IEA-15-240-RWT_AeroDyn15_Polar_41.dat,sha256=RDgdat-wduBSSUu0H1eyahzlt3wk1dy7e7mZyiyon3k,17489
openfast_python/openfast/test/test_data/OpenFAST_models/IEA-15-240-RWT/IEA-15-240-RWT/Airfoils/IEA-15-240-RWT_AeroDyn15_Polar_41_Coords.txt,sha256=srJ0UvDOVxMpgHm1vtIJTaB1fz2jFMyXD2OxSPt_lxA,9212
openfast_python/openfast/test/test_data/OpenFAST_models/IEA-15-240-RWT/IEA-15-240-RWT/Airfoils/IEA-15-240-RWT_AeroDyn15_Polar_42.dat,sha256=L9pAmzEAsLAnHcG4av2_x96TDaR892RGabHwtMTPaqM,17489
openfast_python/openfast/test/test_data/OpenFAST_models/IEA-15-240-RWT/IEA-15-240-RWT/Airfoils/IEA-15-240-RWT_AeroDyn15_Polar_42_Coords.txt,sha256=C3iP5Ha5S1bfqvdNAJSnRjonXTFHbYB4LI_oeHMu_74,9212